Written by BCL::WriteToMDL,


 45 49  0  0  0  0  0  0  0  0999 V2000
   -0.8930    3.8289    0.1613 C   0  0  0  1  0  3  0  0  0  0  0  0
   -0.9401    2.3549    0.1788 C   0  0  0  1  0  3  0  0  0  0  0  0
    0.3939    4.5294    0.3534 C   0  0  0  1  0  3  0  0  0  0  0  0
   -1.9123    4.4676   -0.0163 O   0  0  0  1  0  1  0  0  0  0  0  0
   -1.0722   -1.7705    0.2262 O   0  0  0  1  0  2  0  0  0  0  0  0
    0.5660    5.8268   -0.1341 C   0  0  0  0  0  3  0  0  0  0  0  0
    1.4417    3.8992    1.0284 C   0  0  0  0  0  3  0  0  0  0  0  0
   -2.1380    1.6950    0.4716 C   0  0  0  0  0  3  0  0  0  0  0  0
    0.2116    1.6131   -0.1029 C   0  0  0  0  0  3  0  0  0  0  0  0
   -1.0287   -0.4145    0.2109 C   0  0  0  1  0  3  0  0  0  0  0  0
    0.1632    0.2377   -0.0859 C   0  0  0  0  0  3  0  0  0  0  0  0
   -2.1776    0.3192    0.4864 C   0  0  0  0  0  3  0  0  0  0  0  0
    2.6400    4.5591    1.2046 C   0  0  0  0  0  3  0  0  0  0  0  0
    1.7696    6.4749    0.0492 C   0  0  0  1  0  3  0  0  0  0  0  0
   -0.7172   -2.4072    1.3728 C   0  0  0  1  0  3  0  0  0  0  0  0
    2.8054    5.8426    0.7144 C   0  0  0  1  0  3  0  0  0  0  0  0
    4.1174    6.5574    0.9112 C   0  0  0  0  0  4  0  0  0  0  0  0
   -0.3334   -1.6725    2.4856 C   0  0  0  0  0  3  0  0  0  0  0  0
   -0.7433   -3.7932    1.4349 C   0  0  0  1  0  3  0  0  0  0  0  0
   -0.3819   -4.4381    2.6018 C   0  0  0  1  0  3  0  0  0  0  0  0
    0.0271   -2.3223    3.6501 C   0  0  0  0  0  3  0  0  0  0  0  0
    0.0057   -3.7037    3.7074 C   0  0  0  0  0  3  0  0  0  0  0  0
   -0.9245   -2.7880   -2.9544 N   0  0  0  0  0  3  0  0  0  0  0  0
   -0.6820   -3.9385   -0.9750 N   0  0  0  0  0  3  0  0  0  0  0  0
   -1.1636   -4.5905    0.2358 C   0  0  0  0  0  4  0  0  0  0  0  0
   -1.4761   -3.4590   -1.9241 C   0  0  0  0  0  4  0  0  0  0  0  0
   -2.4080   -6.9908   -2.8544 C   0  0  0  1  0  3  0  0  0  0  0  0
   -3.5410   -6.7616   -3.6160 C   0  0  0  0  0  3  0  0  0  0  0  0
   -4.0186   -5.4761   -3.7937 C   0  0  0  0  0  3  0  0  0  0  0  0
   -3.3678   -4.4039   -3.2328 C   0  0  0  0  0  3  0  0  0  0  0  0
   -2.2213   -4.6238   -2.5054 C   0  0  0  1  0  3  0  0  0  0  0  0
   -1.7460   -5.9152   -2.3033 C   0  0  0  0  0  3  0  0  0  0  0  0
   -1.9785   -8.4081   -2.6135 C   0  0  0  0  0  4  0  0  0  0  0  0
    2.5733    8.0509   -1.6810 C   0  0  0  1  0  3  0  0  0  0  0  0
    2.7442    9.3458   -2.1397 C   0  0  0  0  0  3  0  0  0  0  0  0
    2.2718   10.4181   -1.4055 C   0  0  0  0  0  3  0  0  0  0  0  0
    1.6410   10.2183   -0.2013 C   0  0  0  0  0  3  0  0  0  0  0  0
    1.5012    8.9357    0.2753 C   0  0  0  0  0  3  0  0  0  0  0  0
    1.9538    7.8498   -0.4668 C   0  0  0  1  0  3  0  0  0  0  0  0
    3.0205    6.9147   -2.5531 C   0  0  0  0  0  4  0  0  0  0  0  0
   -0.4100   -5.9363    2.6696 C   0  0  0  0  0  4  0  0  0  0  0  0
    0.8172   -6.4121    3.2308 N   0  0  0  0  0  3  0  0  0  0  0  0
    2.6018   -8.0315    3.6375 O   0  0  0  1  0  1  0  0  0  0  0  0
    1.1509   -8.2672    1.6852 O   0  0  0  1  0  1  0  0  0  0  0  0
    1.8584   -7.4145    2.5769 S   0  0  0  0  0  4  0  0  0  0  0  0
  1  2  1  0  0  0  0
  1  3  1  0  0  0  0
  1  4  2  0  0  0  0
  2  8  2  0  0  0  0
  2  9  1  0  0  0  0
  3  6  2  0  0  0  0
  3  7  1  0  0  0  0
  5 10  1  0  0  0  0
  5 15  1  0  0  0  0
  6 14  1  0  0  0  0
  7 13  2  0  0  0  0
  8 12  1  0  0  0  0
  9 11  2  0  0  0  0
 10 11  1  0  0  0  0
 10 12  2  0  0  0  0
 13 16  1  0  0  0  0
 14 16  2  0  0  0  0
 14 39  1  0  0  0  0
 15 18  2  0  0  0  0
 15 19  1  0  0  0  0
 16 17  1  0  0  0  0
 18 21  1  0  0  0  0
 19 20  2  0  0  0  0
 19 25  1  0  0  0  0
 20 22  1  0  0  0  0
 20 41  1  0  0  0  0
 21 22  2  0  0  0  0
 23 26  1  0  0  0  0
 24 25  1  0  0  0  0
 24 26  1  0  0  0  0
 26 31  1  0  0  0  0
 27 28  1  0  0  0  0
 27 32  2  0  0  0  0
 27 33  1  0  0  0  0
 28 29  2  0  0  0  0
 29 30  1  0  0  0  0
 30 31  2  0  0  0  0
 31 32  1  0  0  0  0
 34 35  1  0  0  0  0
 34 39  2  0  0  0  0
 34 40  1  0  0  0  0
 35 36  2  0  0  0  0
 36 37  1  0  0  0  0
 37 38  2  0  0  0  0
 38 39  1  0  0  0  0
 41 42  1  0  0  0  0
 42 45  1  0  0  0  0
 43 45  2  0  0  0  0
 44 45  2  0  0  0  0
M  BCL ATM C_TrTrTrPi C_TrTrTrPi C_TrTrTrPi O_Tr2Tr2TrPi O_Tr2TrTrPi2 C_TrTrTrPi C_TrTrTrPi C_TrTrTrPi C_TrTrTrPi C_TrTrTrPi C_TrTrTrPi C_TrTrTrPi C_TrTrTrPi C_TrTrTrPi C_TrTrTrPi C_TrTrTrPi C_TeTeTeTe C_TrTrTrPi C_TrTrTrPi C_TrTrTrPi C_TrTrTrPi C_TrTrTrPi N_Te2TeTeTe N_Te2TeTeTe C_TeTeTeTe C_TeTeTeTe C_TrTrTrPi C_TrTrTrPi C_TrTrTrPi C_TrTrTrPi C_TrTrTrPi C_TrTrTrPi C_TeTeTeTe C_TrTrTrPi C_TrTrTrPi C_TrTrTrPi C_TrTrTrPi C_TrTrTrPi C_TrTrTrPi C_TeTeTeTe C_TeTeTeTe N_TrTrTrPi2 O_Tr2Tr2TrPi O_Tr2Tr2TrPi S_TeTeTeTePiPi
M  BCL BND ConjugatedSingleBond ConjugatedSingleBond ConjugatedDoubleBond AromaticDoubleBond AromaticSingleBond AromaticDoubleBond AromaticSingleBond ConjugatedSingleBond ConjugatedSingleBond AromaticSingleBond AromaticDoubleBond AromaticSingleBond AromaticDoubleBond AromaticSingleBond AromaticDoubleBond AromaticSingleBond AromaticDoubleBond ConjugatedSingleBond AromaticDoubleBond AromaticSingleBond NonConjugatedSingleBond AromaticSingleBond AromaticDoubleBond NonConjugatedSingleBond AromaticSingleBond NonConjugatedSingleBond AromaticDoubleBond NonConjugatedSingleBond NonConjugatedSingleBond NonConjugatedSingleBond NonConjugatedSingleBond AromaticSingleBond AromaticDoubleBond NonConjugatedSingleBond AromaticDoubleBond AromaticSingleBond AromaticDoubleBond AromaticSingleBond AromaticSingleBond AromaticDoubleBond NonConjugatedSingleBond AromaticDoubleBond AromaticSingleBond AromaticDoubleBond AromaticSingleBond NonConjugatedSingleBond ConjugatedSingleBond ConjugatedDoubleBond ConjugatedDoubleBond
M  END
> <PredictedActivity>
-619.84

$$$$
